43
05/25/2020 11:26, XYZ structure generated by mol3D Class, molSimplify
La 	0.000000	0.000000	0.000000
O 	0.000000	2.420000	0.000000
C 	0.966366	3.171422	-0.001292
C 	0.712722	4.657966	-0.009473
C 	2.413649	2.723886	0.005406
C 	3.031882	1.498108	0.007098
O 	2.401462	0.298967	0.000000
C 	4.536448	1.436746	0.016143
H 	1.177750	5.105183	-0.913049
H 	1.171574	5.114300	0.892742
H 	5.012401	2.440622	0.021660
H 	4.886234	0.893114	-0.886147
H 	4.874578	0.889118	0.920400
H 	3.089193	3.575703	0.010106
Br 	-1.179179	5.113593	-0.019074
O 	0.000000	-2.420000	0.000000
C 	-0.004118	-3.141416	0.989968
C 	-0.012583	-4.634741	0.777694
C 	-0.000132	-2.658209	2.429420
C 	0.002380	-1.425889	3.040242
O 	0.000000	-0.226075	2.409417
C 	0.007378	-1.357131	4.544905
H 	-0.917268	-5.068445	1.253213
H 	0.888543	-5.078474	1.250849
H 	0.009384	-2.357944	5.027414
H 	-0.894588	-0.809650	4.889335
H 	0.911826	-0.809542	4.882841
H 	0.001004	-3.500079	3.117186
Br 	-0.018660	-5.144617	-1.100487
O 	-2.420000	0.000000	0.000000
C 	-3.118174	-0.026386	-1.006885
C 	-4.615547	-0.051794	-0.825886
C 	-2.607775	-0.034877	-2.439797
C 	-1.370689	-0.023526	-3.045122
O 	-0.170598	0.000000	-2.413979
C 	-1.295651	-0.038577	-4.549714
H 	-5.027237	-0.968425	-1.298194
H 	-5.060816	0.837031	-1.320470
H 	-2.293617	-0.057796	-5.037446
H 	-0.733681	-0.937394	-4.879088
H 	-0.759191	0.868543	-4.898245
H 	-3.441774	-0.055099	-3.136960
Br 	-5.165837	-0.039546	1.040814
