43
05/25/2020 11:27, XYZ structure generated by mol3D Class, molSimplify
La 	0.000000	0.000000	0.000000
O 	0.000000	2.420000	0.000000
C 	0.958121	3.178984	-0.069175
C 	0.688068	4.667377	-0.047209
C 	2.403441	2.731490	-0.173420
C 	3.022845	1.506787	-0.151893
O 	2.399618	0.313426	0.000000
C 	4.519695	1.439801	-0.300454
H 	1.230411	5.119945	0.809755
H 	4.989732	2.438996	-0.423423
H 	4.770079	0.829777	-1.193782
H 	4.957506	0.957944	0.598709
H 	3.074756	3.578637	-0.284939
Cl 	1.253989	5.426412	-1.557868
Cl 	-1.048546	5.047529	0.150894
O 	0.000000	-2.420000	0.000000
C 	0.027471	-3.149590	0.983965
C 	0.104735	-4.642886	0.753285
C 	-0.003628	-2.668985	2.426143
C 	-0.020712	-1.437366	3.037870
O 	0.000000	-0.237108	2.408356
C 	-0.060760	-1.369392	4.542049
H 	1.015399	-5.038629	1.250512
H 	-0.077228	-2.370355	5.023953
H 	-0.972868	-0.820827	4.858147
H 	0.832766	-0.823116	4.909101
H 	-0.009784	-3.509823	3.114312
Cl 	-1.328364	-5.453967	1.437012
Cl 	0.209170	-5.066954	-0.981356
O 	-2.420000	0.000000	0.000000
C 	-3.125687	0.001627	-1.002636
C 	-4.625383	0.041814	-0.805275
C 	-2.615792	-0.024635	-2.437524
C 	-1.379689	-0.029875	-3.043869
O 	-0.178981	0.000000	-2.413372
C 	-1.304650	-0.067457	-4.547875
H 	-5.033878	0.938191	-1.317721
H 	-2.302641	-0.091756	-5.035246
H 	-0.746308	-0.973840	-4.862686
H 	-0.764408	0.831644	-4.911181
H 	-3.448547	-0.041011	-3.135706
Cl 	-5.382927	-1.417052	-1.496326
Cl 	-5.091637	0.146192	0.918671
