43
05/25/2020 11:26, XYZ structure generated by mol3D Class, molSimplify
La 	0.000000	0.000000	0.000000
O 	0.000000	2.420000	0.000000
C 	0.974505	3.161647	-0.001849
C 	0.723084	4.644768	-0.008990
C 	2.419791	2.706636	0.004236
C 	3.035572	1.479227	0.005972
O 	2.403668	0.280681	0.000000
C 	4.539881	1.415089	0.013944
H 	1.181322	5.095441	-0.914260
H 	1.176961	5.103741	0.894290
H 	5.017993	2.418002	0.018453
H 	4.888034	0.870469	-0.888325
H 	4.877977	0.867102	0.918231
H 	3.097884	3.556487	0.007985
F 	-0.634139	4.920265	-0.013661
O 	0.000000	-2.420000	0.000000
C 	-0.010218	-3.133391	0.996206
C 	-0.021943	-4.622877	0.783002
C 	-0.010263	-2.644993	2.434081
C 	-0.005520	-1.411418	3.042751
O 	0.000000	-0.212133	2.410684
C 	-0.006447	-1.340519	4.547253
H 	-0.931403	-5.057855	1.247937
H 	0.877091	-5.073455	1.253626
H 	-0.010723	-2.340456	5.031433
H 	-0.907660	-0.788802	4.887029
H 	0.898766	-0.796079	4.888514
H 	-0.015146	-3.485531	3.123519
F 	-0.020421	-4.933752	-0.566475
O 	-2.420000	0.000000	0.000000
C 	-3.106577	-0.037791	-1.015120
C 	-4.600536	-0.070940	-0.837175
C 	-2.587538	-0.052688	-2.445464
C 	-1.348607	-0.036841	-3.047879
O 	-0.149515	0.000000	-2.415377
C 	-1.270426	-0.062144	-4.552280
H 	-5.009489	-0.994975	-1.297457
H 	-5.054196	0.812732	-1.333020
H 	-2.266917	-0.092240	-5.042203
H 	-0.701191	-0.959204	-4.873857
H 	-0.739388	0.846205	-4.906415
H 	-3.418913	-0.083835	-3.145203
F 	-4.944526	-0.053128	0.504231
