43
05/25/2020 11:27, XYZ structure generated by mol3D Class, molSimplify
La 	0.000000	0.000000	0.000000
O 	0.000000	2.420000	0.000000
C 	0.898057	3.251026	-0.006192
C 	0.474199	4.705593	-0.028628
C 	2.392952	2.907148	0.007294
C 	3.018713	1.666652	0.011476
O 	2.372821	0.475520	0.000000
C 	4.523926	1.515971	0.028613
H 	0.880862	5.196555	-0.937624
H 	0.867050	5.220913	0.872429
H 	5.103775	2.456478	0.038838
H 	4.838412	0.946071	-0.870427
H 	4.816765	0.940769	0.931783
Cl 	3.437098	4.348840	0.017765
Cl 	-1.302406	4.919302	-0.045833
O 	0.000000	-2.420000	0.000000
C 	0.048691	-3.224374	0.921637
C 	0.068912	-4.688761	0.532115
C 	0.092452	-2.845747	2.411996
C 	0.071298	-1.598112	3.030201
O 	0.000000	-0.407503	2.385444
C 	0.125874	-1.436498	4.534061
H 	-0.809153	-5.202944	0.975939
H 	0.999509	-5.161562	0.910025
H 	0.185412	-2.369875	5.121943
H 	-0.783324	-0.895733	4.870329
H 	1.016018	-0.827637	4.797237
Cl 	0.184040	-4.271684	3.475389
Cl 	0.009938	-4.948797	-1.237700
O 	-2.420000	0.000000	0.000000
C 	-3.202208	-0.010232	-0.942496
C 	-4.674836	-0.030917	-0.583239
C 	-2.795825	-0.001266	-2.430278
C 	-1.541271	0.004262	-3.041170
O 	-0.348770	0.000000	-2.394736
C 	-1.371962	0.015001	-4.545709
H 	-5.147448	-0.941531	-1.007366
H 	-5.172553	0.868895	-1.001470
H 	-2.301051	0.019305	-5.143060
H 	-0.794279	-0.883444	-4.848006
H 	-0.794926	0.918154	-4.835018
Cl 	-4.210658	0.001361	-3.513343
Cl 	-4.972158	-0.041042	1.181817
