43
05/25/2020 11:27, XYZ structure generated by mol3D Class, molSimplify
La 	0.000000	0.000000	0.000000
O 	0.000000	2.420000	0.000000
C 	1.010279	3.110011	-0.076977
C 	0.830812	4.597748	0.013968
C 	2.422203	2.596089	-0.290271
C 	3.025835	1.359402	-0.277590
O 	2.413184	0.181503	0.000000
C 	4.502396	1.267685	-0.580784
H 	-0.238360	4.862593	0.163297
H 	1.190617	5.080916	-0.918063
H 	1.412074	4.988527	0.876549
H 	4.832733	0.208790	-0.531702
H 	3.103734	3.418693	-0.496956
Br 	4.882025	1.905007	-2.377026
Br 	5.557940	2.268986	0.703724
O 	0.000000	-2.420000	0.000000
C 	-0.057318	-3.084078	1.029654
C 	-0.015515	-4.577436	0.877947
C 	-0.187345	-2.541737	2.446008
C 	-0.175737	-1.299757	3.045316
O 	0.000000	-0.109751	2.417510
C 	-0.364782	-1.215437	4.542279
H 	0.076550	-4.868000	-0.190990
H 	-0.944612	-5.024845	1.288303
H 	0.859839	-4.982372	1.428745
H 	-0.329790	-0.153790	4.867051
H 	-0.320187	-3.360166	3.149817
Br 	-2.094924	-1.922020	5.069440
Br 	1.043643	-2.157660	5.489433
O 	-2.420000	0.000000	0.000000
C 	-3.062638	-0.045938	-1.044375
C 	-4.559115	-0.038183	-0.917864
C 	-2.496862	-0.121610	-2.458476
C 	-1.250698	-0.109604	-3.053266
O 	-0.055187	0.000000	-2.419371
C 	-1.166776	-0.223302	-4.558373
H 	-4.870062	0.016382	0.147897
H 	-4.978706	-0.965211	-1.361570
H 	-4.974007	0.843001	-1.451418
H 	-0.103606	-0.198063	-4.879206
H 	-3.310219	-0.205920	-3.175577
Br 	-1.915050	-1.904414	-5.178159
Br 	-2.068825	1.257538	-5.431312
