43
05/25/2020 11:27, XYZ structure generated by mol3D Class, molSimplify
La 	0.000000	0.000000	0.000000
O 	0.000000	2.420000	0.000000
C 	0.977289	3.157017	-0.040848
C 	0.722011	4.636490	-0.016995
C 	2.421150	2.702008	-0.125920
C 	3.040503	1.473387	-0.116270
O 	2.403378	0.283147	0.000000
C 	4.545638	1.373910	-0.233998
H 	-0.366769	4.852259	0.044159
H 	1.124188	5.103006	-0.940450
H 	1.220298	5.086576	0.867478
H 	4.941350	0.860321	0.666723
H 	3.084087	3.556512	-0.211453
F 	4.864477	0.621730	-1.349493
F 	5.172834	2.604483	-0.338270
O 	0.000000	-2.420000	0.000000
C 	-0.056872	-3.128198	0.998443
C 	-0.059989	-4.614093	0.780712
C 	-0.133060	-2.639190	2.435112
C 	-0.115076	-1.405055	3.048400
O 	0.000000	-0.214009	2.410519
C 	-0.223883	-1.298092	4.553987
H 	-0.002276	-4.859002	-0.302050
H 	-0.992234	-5.052888	1.193449
H 	0.815482	-5.067781	1.291387
H 	0.680924	-0.785137	4.941385
H 	-0.221097	-3.484246	3.109801
F 	-1.334772	-0.540768	4.876444
F 	-0.327177	-2.524593	5.189397
O 	-2.420000	0.000000	0.000000
C 	-3.107168	0.013912	-1.015242
C 	-4.596528	0.055663	-0.825835
C 	-2.595212	-0.013935	-2.448648
C 	-1.356160	-0.023939	-3.056169
O 	-0.161436	0.000000	-2.414609
C 	-1.247139	-0.059981	-4.565934
H 	-4.861580	0.072210	0.253550
H 	-5.059563	-0.840519	-1.289602
H 	-5.008515	0.969314	-1.303765
H 	-0.688731	0.837715	-4.904351
H 	-3.435490	-0.028158	-3.134574
F 	-0.542077	-1.187872	-4.943251
F 	-2.472935	-0.070542	-5.210421
