43
05/25/2020 11:27, XYZ structure generated by mol3D Class, molSimplify
La 	0.000000	0.000000	0.000000
O 	0.000000	2.420000	0.000000
C 	0.853398	3.295196	-0.007765
C 	0.322845	4.706050	-0.048419
C 	2.365675	3.028614	0.026474
C 	3.014585	1.795064	0.033328
O 	2.338725	0.621904	0.000000
C 	4.519906	1.527450	0.073420
H 	-0.789001	4.713782	-0.070172
H 	0.684697	5.222669	-0.962066
H 	0.648638	5.263508	0.854346
H 	4.764934	0.917207	-0.821547
H 	4.710271	0.892987	0.964193
Br 	3.372191	4.681407	0.057233
Br 	5.922545	2.875357	0.139946
O 	0.000000	-2.420000	0.000000
C 	-0.009597	-3.262916	0.886581
C 	-0.047346	-4.689973	0.398590
C 	0.020283	-2.952692	2.396238
C 	0.027931	-1.709575	3.035583
O 	0.000000	-0.534496	2.360236
C 	0.063493	-1.430620	4.539863
H 	-0.066190	-4.732364	-0.712701
H 	-0.961674	-5.196320	0.772549
H 	0.855267	-5.236852	0.742387
H 	-0.830677	-0.815988	4.775898
H 	0.954814	-0.795255	4.727115
Br 	0.046050	-4.586183	3.435123
Br 	0.123402	-2.757590	5.963143
O 	-2.420000	0.000000	0.000000
C 	-3.233668	-0.017329	-0.914420
C 	-4.673786	-0.058559	-0.464557
C 	-2.885972	0.005227	-2.421606
C 	-1.634300	0.016267	-3.052124
O 	-0.458569	0.000000	-2.376155
C 	-1.344144	0.044037	-4.555578
H 	-4.746684	-0.071608	0.645230
H 	-5.166550	-0.977200	-0.846279
H 	-5.214872	0.840252	-0.827127
H 	-0.722089	-0.847695	-4.779879
H 	-0.712365	0.937843	-4.742743
Br 	-4.501573	0.015934	-3.489000
Br 	-2.652448	0.086357	-5.997276
