43
05/25/2020 11:27, XYZ structure generated by mol3D Class, molSimplify
La 	0.000000	0.000000	0.000000
O 	0.000000	2.420000	0.000000
C 	0.878730	3.270704	-0.001156
C 	0.390806	4.697605	-0.024829
C 	2.385699	2.971552	0.023408
C 	3.028334	1.733366	0.026297
O 	2.354677	0.558477	0.000000
C 	4.535871	1.473921	0.055233
H 	-0.720268	4.739700	-0.041125
H 	0.766236	5.212201	-0.934028
H 	0.740094	5.235143	0.881465
H 	4.785200	0.867022	-0.840489
H 	4.745564	0.846801	0.947285
Cl 	3.341734	4.463841	0.048741
Cl 	5.752903	2.781605	0.099616
O 	0.000000	-2.420000	0.000000
C 	-0.023848	-3.241045	0.907367
C 	-0.060645	-4.680924	0.457890
C 	-0.014224	-2.902915	2.411994
C 	-0.001007	-1.655938	3.045258
O 	0.000000	-0.479370	2.372046
C 	0.011877	-1.386287	4.552602
H 	-0.063430	-4.754001	-0.651820
H 	-0.981521	-5.173621	0.834403
H 	0.834068	-5.220871	0.832462
H 	-0.877729	-0.763523	4.784293
H 	0.910204	-0.770774	4.768854
Cl 	-0.023646	-4.379486	3.392897
Cl 	0.019657	-2.679555	5.785886
O 	-2.420000	0.000000	0.000000
C 	-3.213392	0.051808	-0.931642
C 	-4.664942	0.068713	-0.517884
C 	-2.839984	0.102287	-2.431368
C 	-1.586049	0.080387	-3.057413
O 	-0.410835	0.000000	-2.384872
C 	-1.304105	0.137497	-4.561909
H 	-4.766908	0.027119	0.588730
H 	-5.191636	-0.811990	-0.941129
H 	-5.151609	1.002541	-0.868951
H 	-0.721590	-0.770852	-4.822971
H 	-0.644889	1.013168	-4.739416
Cl 	-4.299553	0.200888	-3.433689
Cl 	-2.580454	0.252925	-5.807939
