43
05/25/2020 11:27, XYZ structure generated by mol3D Class, molSimplify
La 	0.000000	0.000000	0.000000
O 	0.000000	2.420000	0.000000
C 	0.971936	3.165714	-0.005141
C 	0.678983	4.640907	-0.009718
C 	2.438054	2.734969	-0.006762
C 	3.049775	1.489973	-0.004441
O 	2.401484	0.298789	0.000000
C 	4.559525	1.337287	-0.006843
H 	-0.416398	4.830965	-0.007896
H 	1.113350	5.108267	-0.918334
H 	1.117507	5.114837	0.893513
H 	4.857429	0.758108	-0.905841
H 	4.860810	0.763005	0.894126
F 	3.268711	3.813702	-0.011493
F 	5.269171	2.524472	-0.011450
O 	0.000000	-2.420000	0.000000
C 	-0.007999	-3.141741	0.990879
C 	-0.014870	-4.623250	0.729183
C 	-0.011675	-2.683244	2.452119
C 	-0.007820	-1.432192	3.057152
O 	0.000000	-0.240605	2.408009
C 	-0.012606	-1.271597	4.566313
H 	-0.011587	-4.836853	-0.361825
H 	-0.924983	-5.079931	1.171601
H 	0.886969	-5.089189	1.178868
H 	-0.910779	-0.688747	4.859390
H 	0.888831	-0.696998	4.865729
F 	-0.019941	-3.752155	3.295208
F 	-0.020458	-2.453595	5.284401
O 	-2.420000	0.000000	0.000000
C 	-3.121973	-0.025931	-1.005364
C 	-4.607894	-0.046600	-0.769081
C 	-2.640659	-0.038805	-2.462282
C 	-1.385045	-0.027511	-3.061650
O 	-0.193490	0.000000	-2.412252
C 	-1.217373	-0.046119	-4.570751
H 	-4.840783	-0.034786	0.318040
H 	-5.046705	-0.966096	-1.210016
H 	-5.075924	0.845540	-1.235807
H 	-0.623036	-0.940716	-4.851470
H 	-0.650950	0.858345	-4.876827
F 	-3.701281	-0.067238	-3.315455
F 	-2.394844	-0.074583	-5.295716
