43
05/25/2020 11:26, XYZ structure generated by mol3D Class, molSimplify
La 	0.000000	0.000000	0.000000
O 	0.000000	2.420000	0.000000
C 	0.978525	3.156286	-0.008141
C 	0.723242	4.636139	-0.019799
C 	2.424972	2.700468	-0.005892
C 	3.043864	1.471952	-0.001827
O 	2.404032	0.277547	0.000000
C 	4.552987	1.375327	0.000424
H 	-0.367192	4.852495	-0.020157
H 	1.172747	5.086621	-0.929423
H 	1.175345	5.101460	0.881041
H 	4.880183	0.813262	-0.899108
H 	4.877354	0.817635	0.903788
H 	3.091821	3.556453	-0.008672
F 	5.187366	2.606507	-0.001417
O 	0.000000	-2.420000	0.000000
C 	-0.017561	-3.128151	0.999891
C 	-0.035380	-4.613989	0.782151
C 	-0.021764	-2.639532	2.438944
C 	-0.013707	-1.404681	3.051107
O 	0.000000	-0.209743	2.410894
C 	-0.020624	-1.301176	4.560288
H 	-0.030428	-4.858511	-0.302204
H 	-0.949935	-5.048508	1.237598
H 	0.860453	-5.072311	1.251304
H 	-0.918623	-0.731684	4.878730
H 	0.883930	-0.747246	4.887739
H 	-0.033644	-3.486190	3.117214
F 	-0.034270	-2.528332	5.202207
O 	-2.420000	0.000000	0.000000
C 	-3.105725	-0.046275	-1.015211
C 	-4.595279	-0.086086	-0.826321
C 	-2.591815	-0.066130	-2.448156
C 	-1.352674	-0.046720	-3.055253
O 	-0.158202	0.000000	-2.414823
C 	-1.242464	-0.078597	-4.564087
H 	-4.861682	-0.067267	0.252717
H 	-5.005073	-1.015484	-1.274592
H 	-5.059332	0.793756	-1.319536
H 	-0.655091	-0.971529	-4.863917
H 	-0.703289	0.829784	-4.905308
H 	-3.430745	-0.105262	-3.134732
F 	-2.465690	-0.126120	-5.211916
